Input file: ../data/2025_11-colo_sv_calls/colo829_merge_grch38.vcf
Output file: ../results/2025_11-colo_svafotate/germline/colo829_merge_grch38_cln.vcf
Filtering BNDs
Setting END type and AF header line
Done. Output written to ../results/2025_11-colo_svafotate/germline/colo829_merge_grch38_cln.vcf

Annotating the following VCF: ../results/2025_11-colo_svafotate/germline/colo829_merge_grch38_cln.vcf

Reading the following data source file: ../data/2025_11-svafotate_bed/SVAFotate_core_SV_popAFs.GRCh38.v4.1.bed.gz

Annotating with the following sources and reciprocal overlap fractions:
TOPMed	0.5

Gathering SV coordinates from VCF file: ../results/2025_11-colo_svafotate/germline/colo829_merge_grch38_cln.vcf

Creating pyranges object from VCF data...

Running pyranges.join for:
TOPMed

Creating pyranges objects per SVTYPE from VCF data...

Adding annotations to output VCF...

Annoted VCF writen to: ../results/2025_11-colo_svafotate/germline/svafotate-overlap_0.5-source_TOPMed.vcf

DONE

Annotating the following VCF: ../results/2025_11-colo_svafotate/germline/colo829_merge_grch38_cln.vcf

Reading the following data source file: ../data/2025_11-svafotate_bed/SVAFotate_core_SV_popAFs.GRCh38.v4.1.bed.gz

Annotating with the following sources and reciprocal overlap fractions:
CCDG	0.5

Gathering SV coordinates from VCF file: ../results/2025_11-colo_svafotate/germline/colo829_merge_grch38_cln.vcf

Creating pyranges object from VCF data...

Running pyranges.join for:
CCDG

Creating pyranges objects per SVTYPE from VCF data...

Adding annotations to output VCF...

Annoted VCF writen to: ../results/2025_11-colo_svafotate/germline/svafotate-overlap_0.5-source_CCDG.vcf

DONE

Annotating the following VCF: ../results/2025_11-colo_svafotate/germline/colo829_merge_grch38_cln.vcf

Reading the following data source file: ../data/2025_11-svafotate_bed/SVAFotate_core_SV_popAFs.GRCh38.v4.1.bed.gz

Annotating with the following sources and reciprocal overlap fractions:
ThousG	0.5

Gathering SV coordinates from VCF file: ../results/2025_11-colo_svafotate/germline/colo829_merge_grch38_cln.vcf

Creating pyranges object from VCF data...

Running pyranges.join for:
ThousG

Creating pyranges objects per SVTYPE from VCF data...

Adding annotations to output VCF...

Annoted VCF writen to: ../results/2025_11-colo_svafotate/germline/svafotate-overlap_0.5-source_ThousG.vcf

DONE

Annotating the following VCF: ../results/2025_11-colo_svafotate/germline/colo829_merge_grch38_cln.vcf

Reading the following data source file: ../data/2025_11-svafotate_bed/SVAFotate_core_SV_popAFs.GRCh38.v4.1.bed.gz

Annotating with the following sources and reciprocal overlap fractions:
gnomAD	0.5

Gathering SV coordinates from VCF file: ../results/2025_11-colo_svafotate/germline/colo829_merge_grch38_cln.vcf

Creating pyranges object from VCF data...

Running pyranges.join for:
gnomAD

Creating pyranges objects per SVTYPE from VCF data...

Adding annotations to output VCF...

Annoted VCF writen to: ../results/2025_11-colo_svafotate/germline/svafotate-overlap_0.5-source_gnomAD.vcf

DONE

Annotating the following VCF: ../results/2025_11-colo_svafotate/germline/colo829_merge_grch38_cln.vcf

Reading the following data source file: ../data/2025_11-svafotate_bed/SVAFotate_core_SV_popAFs.GRCh38.v4.1.bed.gz

Annotating with the following sources and reciprocal overlap fractions:
TOPMed	0.6

Gathering SV coordinates from VCF file: ../results/2025_11-colo_svafotate/germline/colo829_merge_grch38_cln.vcf

Creating pyranges object from VCF data...

Running pyranges.join for:
TOPMed

Creating pyranges objects per SVTYPE from VCF data...

Adding annotations to output VCF...

Annoted VCF writen to: ../results/2025_11-colo_svafotate/germline/svafotate-overlap_0.6-source_TOPMed.vcf

DONE

Annotating the following VCF: ../results/2025_11-colo_svafotate/germline/colo829_merge_grch38_cln.vcf

Reading the following data source file: ../data/2025_11-svafotate_bed/SVAFotate_core_SV_popAFs.GRCh38.v4.1.bed.gz

Annotating with the following sources and reciprocal overlap fractions:
CCDG	0.6

Gathering SV coordinates from VCF file: ../results/2025_11-colo_svafotate/germline/colo829_merge_grch38_cln.vcf

Creating pyranges object from VCF data...

Running pyranges.join for:
CCDG

Creating pyranges objects per SVTYPE from VCF data...

Adding annotations to output VCF...

Annoted VCF writen to: ../results/2025_11-colo_svafotate/germline/svafotate-overlap_0.6-source_CCDG.vcf

DONE

Annotating the following VCF: ../results/2025_11-colo_svafotate/germline/colo829_merge_grch38_cln.vcf

Reading the following data source file: ../data/2025_11-svafotate_bed/SVAFotate_core_SV_popAFs.GRCh38.v4.1.bed.gz

Annotating with the following sources and reciprocal overlap fractions:
ThousG	0.6

Gathering SV coordinates from VCF file: ../results/2025_11-colo_svafotate/germline/colo829_merge_grch38_cln.vcf

Creating pyranges object from VCF data...

Running pyranges.join for:
ThousG

Creating pyranges objects per SVTYPE from VCF data...

Adding annotations to output VCF...

Annoted VCF writen to: ../results/2025_11-colo_svafotate/germline/svafotate-overlap_0.6-source_ThousG.vcf

DONE

Annotating the following VCF: ../results/2025_11-colo_svafotate/germline/colo829_merge_grch38_cln.vcf

Reading the following data source file: ../data/2025_11-svafotate_bed/SVAFotate_core_SV_popAFs.GRCh38.v4.1.bed.gz

Annotating with the following sources and reciprocal overlap fractions:
gnomAD	0.6

Gathering SV coordinates from VCF file: ../results/2025_11-colo_svafotate/germline/colo829_merge_grch38_cln.vcf

Creating pyranges object from VCF data...

Running pyranges.join for:
gnomAD

Creating pyranges objects per SVTYPE from VCF data...

Adding annotations to output VCF...

Annoted VCF writen to: ../results/2025_11-colo_svafotate/germline/svafotate-overlap_0.6-source_gnomAD.vcf

DONE

Annotating the following VCF: ../results/2025_11-colo_svafotate/germline/colo829_merge_grch38_cln.vcf

Reading the following data source file: ../data/2025_11-svafotate_bed/SVAFotate_core_SV_popAFs.GRCh38.v4.1.bed.gz

Annotating with the following sources and reciprocal overlap fractions:
TOPMed	0.8

Gathering SV coordinates from VCF file: ../results/2025_11-colo_svafotate/germline/colo829_merge_grch38_cln.vcf

Creating pyranges object from VCF data...

Running pyranges.join for:
TOPMed

Creating pyranges objects per SVTYPE from VCF data...

Adding annotations to output VCF...

Annoted VCF writen to: ../results/2025_11-colo_svafotate/germline/svafotate-overlap_0.8-source_TOPMed.vcf

DONE

Annotating the following VCF: ../results/2025_11-colo_svafotate/germline/colo829_merge_grch38_cln.vcf

Reading the following data source file: ../data/2025_11-svafotate_bed/SVAFotate_core_SV_popAFs.GRCh38.v4.1.bed.gz

Annotating with the following sources and reciprocal overlap fractions:
CCDG	0.8

Gathering SV coordinates from VCF file: ../results/2025_11-colo_svafotate/germline/colo829_merge_grch38_cln.vcf

Creating pyranges object from VCF data...

Running pyranges.join for:
CCDG

Creating pyranges objects per SVTYPE from VCF data...

Adding annotations to output VCF...

Annoted VCF writen to: ../results/2025_11-colo_svafotate/germline/svafotate-overlap_0.8-source_CCDG.vcf

DONE
Running cmd: /data/jake/stix-lr/src/setup_colo_vcf.sh -i ../data/2025_11-colo_sv_calls/colo829_merge_grch38.vcf -o ../results/2025_11-colo_svafotate/germline/colo829_merge_grch38_cln.vcf --sedfile /data/jake/stix-lr/src/setup_vcf.sed
Starting SVAFotate experiments...
Running SVAFotate for overlap 0.5, source TOPMed
Running cmd: /data/jake/miniconda3/envs/svafotate-env/bin/svafotate annotate -v ../results/2025_11-colo_svafotate/germline/colo829_merge_grch38_cln.vcf -b ../data/2025_11-svafotate_bed/SVAFotate_core_SV_popAFs.GRCh38.v4.1.bed.gz -f 0.5 -s TOPMed -O vcf -o ../results/2025_11-colo_svafotate/germline/svafotate-overlap_0.5-source_TOPMed.vcf --cpu 1
Extracting Max_AF for overlap 0.5, source TOPMed
Running cmd: /data/jake/miniconda3/bin/bcftools query -f '%INFO/Max_AF
' ../results/2025_11-colo_svafotate/germline/svafotate-overlap_0.5-source_TOPMed.vcf > ../results/2025_11-colo_svafotate/germline/svafotate-overlap_0.5-source_TOPMed_maxaf.txt
SVAFotate completed for overlap 0.5, source TOPMed in 209.65 seconds
Running SVAFotate for overlap 0.5, source CCDG
Running cmd: /data/jake/miniconda3/envs/svafotate-env/bin/svafotate annotate -v ../results/2025_11-colo_svafotate/germline/colo829_merge_grch38_cln.vcf -b ../data/2025_11-svafotate_bed/SVAFotate_core_SV_popAFs.GRCh38.v4.1.bed.gz -f 0.5 -s CCDG -O vcf -o ../results/2025_11-colo_svafotate/germline/svafotate-overlap_0.5-source_CCDG.vcf --cpu 1
Extracting Max_AF for overlap 0.5, source CCDG
Running cmd: /data/jake/miniconda3/bin/bcftools query -f '%INFO/Max_AF
' ../results/2025_11-colo_svafotate/germline/svafotate-overlap_0.5-source_CCDG.vcf > ../results/2025_11-colo_svafotate/germline/svafotate-overlap_0.5-source_CCDG_maxaf.txt
SVAFotate completed for overlap 0.5, source CCDG in 210.74 seconds
Running SVAFotate for overlap 0.5, source ThousG
Running cmd: /data/jake/miniconda3/envs/svafotate-env/bin/svafotate annotate -v ../results/2025_11-colo_svafotate/germline/colo829_merge_grch38_cln.vcf -b ../data/2025_11-svafotate_bed/SVAFotate_core_SV_popAFs.GRCh38.v4.1.bed.gz -f 0.5 -s ThousG -O vcf -o ../results/2025_11-colo_svafotate/germline/svafotate-overlap_0.5-source_ThousG.vcf --cpu 1
Extracting Max_AF for overlap 0.5, source ThousG
Running cmd: /data/jake/miniconda3/bin/bcftools query -f '%INFO/Max_AF
' ../results/2025_11-colo_svafotate/germline/svafotate-overlap_0.5-source_ThousG.vcf > ../results/2025_11-colo_svafotate/germline/svafotate-overlap_0.5-source_ThousG_maxaf.txt
SVAFotate completed for overlap 0.5, source ThousG in 178.87 seconds
Running SVAFotate for overlap 0.5, source gnomAD
Running cmd: /data/jake/miniconda3/envs/svafotate-env/bin/svafotate annotate -v ../results/2025_11-colo_svafotate/germline/colo829_merge_grch38_cln.vcf -b ../data/2025_11-svafotate_bed/SVAFotate_core_SV_popAFs.GRCh38.v4.1.bed.gz -f 0.5 -s gnomAD -O vcf -o ../results/2025_11-colo_svafotate/germline/svafotate-overlap_0.5-source_gnomAD.vcf --cpu 1
Extracting Max_AF for overlap 0.5, source gnomAD
Running cmd: /data/jake/miniconda3/bin/bcftools query -f '%INFO/Max_AF
' ../results/2025_11-colo_svafotate/germline/svafotate-overlap_0.5-source_gnomAD.vcf > ../results/2025_11-colo_svafotate/germline/svafotate-overlap_0.5-source_gnomAD_maxaf.txt
SVAFotate completed for overlap 0.5, source gnomAD in 309.77 seconds
Running SVAFotate for overlap 0.6, source TOPMed
Running cmd: /data/jake/miniconda3/envs/svafotate-env/bin/svafotate annotate -v ../results/2025_11-colo_svafotate/germline/colo829_merge_grch38_cln.vcf -b ../data/2025_11-svafotate_bed/SVAFotate_core_SV_popAFs.GRCh38.v4.1.bed.gz -f 0.6 -s TOPMed -O vcf -o ../results/2025_11-colo_svafotate/germline/svafotate-overlap_0.6-source_TOPMed.vcf --cpu 1
Extracting Max_AF for overlap 0.6, source TOPMed
Running cmd: /data/jake/miniconda3/bin/bcftools query -f '%INFO/Max_AF
' ../results/2025_11-colo_svafotate/germline/svafotate-overlap_0.6-source_TOPMed.vcf > ../results/2025_11-colo_svafotate/germline/svafotate-overlap_0.6-source_TOPMed_maxaf.txt
SVAFotate completed for overlap 0.6, source TOPMed in 208.75 seconds
Running SVAFotate for overlap 0.6, source CCDG
Running cmd: /data/jake/miniconda3/envs/svafotate-env/bin/svafotate annotate -v ../results/2025_11-colo_svafotate/germline/colo829_merge_grch38_cln.vcf -b ../data/2025_11-svafotate_bed/SVAFotate_core_SV_popAFs.GRCh38.v4.1.bed.gz -f 0.6 -s CCDG -O vcf -o ../results/2025_11-colo_svafotate/germline/svafotate-overlap_0.6-source_CCDG.vcf --cpu 1
Extracting Max_AF for overlap 0.6, source CCDG
Running cmd: /data/jake/miniconda3/bin/bcftools query -f '%INFO/Max_AF
' ../results/2025_11-colo_svafotate/germline/svafotate-overlap_0.6-source_CCDG.vcf > ../results/2025_11-colo_svafotate/germline/svafotate-overlap_0.6-source_CCDG_maxaf.txt
SVAFotate completed for overlap 0.6, source CCDG in 208.32 seconds
Running SVAFotate for overlap 0.6, source ThousG
Running cmd: /data/jake/miniconda3/envs/svafotate-env/bin/svafotate annotate -v ../results/2025_11-colo_svafotate/germline/colo829_merge_grch38_cln.vcf -b ../data/2025_11-svafotate_bed/SVAFotate_core_SV_popAFs.GRCh38.v4.1.bed.gz -f 0.6 -s ThousG -O vcf -o ../results/2025_11-colo_svafotate/germline/svafotate-overlap_0.6-source_ThousG.vcf --cpu 1
Extracting Max_AF for overlap 0.6, source ThousG
Running cmd: /data/jake/miniconda3/bin/bcftools query -f '%INFO/Max_AF
' ../results/2025_11-colo_svafotate/germline/svafotate-overlap_0.6-source_ThousG.vcf > ../results/2025_11-colo_svafotate/germline/svafotate-overlap_0.6-source_ThousG_maxaf.txt
SVAFotate completed for overlap 0.6, source ThousG in 177.84 seconds
Running SVAFotate for overlap 0.6, source gnomAD
Running cmd: /data/jake/miniconda3/envs/svafotate-env/bin/svafotate annotate -v ../results/2025_11-colo_svafotate/germline/colo829_merge_grch38_cln.vcf -b ../data/2025_11-svafotate_bed/SVAFotate_core_SV_popAFs.GRCh38.v4.1.bed.gz -f 0.6 -s gnomAD -O vcf -o ../results/2025_11-colo_svafotate/germline/svafotate-overlap_0.6-source_gnomAD.vcf --cpu 1
Extracting Max_AF for overlap 0.6, source gnomAD
Running cmd: /data/jake/miniconda3/bin/bcftools query -f '%INFO/Max_AF
' ../results/2025_11-colo_svafotate/germline/svafotate-overlap_0.6-source_gnomAD.vcf > ../results/2025_11-colo_svafotate/germline/svafotate-overlap_0.6-source_gnomAD_maxaf.txt
SVAFotate completed for overlap 0.6, source gnomAD in 311.04 seconds
Running SVAFotate for overlap 0.8, source TOPMed
Running cmd: /data/jake/miniconda3/envs/svafotate-env/bin/svafotate annotate -v ../results/2025_11-colo_svafotate/germline/colo829_merge_grch38_cln.vcf -b ../data/2025_11-svafotate_bed/SVAFotate_core_SV_popAFs.GRCh38.v4.1.bed.gz -f 0.8 -s TOPMed -O vcf -o ../results/2025_11-colo_svafotate/germline/svafotate-overlap_0.8-source_TOPMed.vcf --cpu 1
Extracting Max_AF for overlap 0.8, source TOPMed
Running cmd: /data/jake/miniconda3/bin/bcftools query -f '%INFO/Max_AF
' ../results/2025_11-colo_svafotate/germline/svafotate-overlap_0.8-source_TOPMed.vcf > ../results/2025_11-colo_svafotate/germline/svafotate-overlap_0.8-source_TOPMed_maxaf.txt
SVAFotate completed for overlap 0.8, source TOPMed in 211.68 seconds
Running SVAFotate for overlap 0.8, source CCDG
Running cmd: /data/jake/miniconda3/envs/svafotate-env/bin/svafotate annotate -v ../results/2025_11-colo_svafotate/germline/colo829_merge_grch38_cln.vcf -b ../data/2025_11-svafotate_bed/SVAFotate_core_SV_popAFs.GRCh38.v4.1.bed.gz -f 0.8 -s CCDG -O vcf -o ../results/2025_11-colo_svafotate/germline/svafotate-overlap_0.8-source_CCDG.vcf --cpu 1
Extracting Max_AF for overlap 0.8, source CCDG
Running cmd: /data/jake/miniconda3/bin/bcftools query -f '%INFO/Max_AF
' ../results/2025_11-colo_svafotate/germline/svafotate-overlap_0.8-source_CCDG.vcf > ../results/2025_11-colo_svafotate/germline/svafotate-overlap_0.8-source_CCDG_maxaf.txt
SVAFotate completed for overlap 0.8, source CCDG in 208.53 seconds
Running SVAFotate for overlap 0.8, source ThousG
Running cmd: 
Annotating the following VCF: ../results/2025_11-colo_svafotate/germline/colo829_merge_grch38_cln.vcf

Reading the following data source file: ../data/2025_11-svafotate_bed/SVAFotate_core_SV_popAFs.GRCh38.v4.1.bed.gz

Annotating with the following sources and reciprocal overlap fractions:
ThousG	0.8

Gathering SV coordinates from VCF file: ../results/2025_11-colo_svafotate/germline/colo829_merge_grch38_cln.vcf

Creating pyranges object from VCF data...

Running pyranges.join for:
ThousG

Creating pyranges objects per SVTYPE from VCF data...

Adding annotations to output VCF...

Annoted VCF writen to: ../results/2025_11-colo_svafotate/germline/svafotate-overlap_0.8-source_ThousG.vcf

DONE

Annotating the following VCF: ../results/2025_11-colo_svafotate/germline/colo829_merge_grch38_cln.vcf

Reading the following data source file: ../data/2025_11-svafotate_bed/SVAFotate_core_SV_popAFs.GRCh38.v4.1.bed.gz

Annotating with the following sources and reciprocal overlap fractions:
gnomAD	0.8

Gathering SV coordinates from VCF file: ../results/2025_11-colo_svafotate/germline/colo829_merge_grch38_cln.vcf

Creating pyranges object from VCF data...

Running pyranges.join for:
gnomAD

Creating pyranges objects per SVTYPE from VCF data...

Adding annotations to output VCF...

Annoted VCF writen to: ../results/2025_11-colo_svafotate/germline/svafotate-overlap_0.8-source_gnomAD.vcf

DONE

Annotating the following VCF: ../results/2025_11-colo_svafotate/germline/colo829_merge_grch38_cln.vcf

Reading the following data source file: ../data/2025_11-svafotate_bed/SVAFotate_core_SV_popAFs.GRCh38.v4.1.bed.gz

Annotating with the following sources and reciprocal overlap fractions:
TOPMed	0.9

Gathering SV coordinates from VCF file: ../results/2025_11-colo_svafotate/germline/colo829_merge_grch38_cln.vcf

Creating pyranges object from VCF data...

Running pyranges.join for:
TOPMed

Creating pyranges objects per SVTYPE from VCF data...

Adding annotations to output VCF...

Annoted VCF writen to: ../results/2025_11-colo_svafotate/germline/svafotate-overlap_0.9-source_TOPMed.vcf

DONE

Annotating the following VCF: ../results/2025_11-colo_svafotate/germline/colo829_merge_grch38_cln.vcf

Reading the following data source file: ../data/2025_11-svafotate_bed/SVAFotate_core_SV_popAFs.GRCh38.v4.1.bed.gz

Annotating with the following sources and reciprocal overlap fractions:
CCDG	0.9

Gathering SV coordinates from VCF file: ../results/2025_11-colo_svafotate/germline/colo829_merge_grch38_cln.vcf

Creating pyranges object from VCF data...

Running pyranges.join for:
CCDG

Creating pyranges objects per SVTYPE from VCF data...

Adding annotations to output VCF...

Annoted VCF writen to: ../results/2025_11-colo_svafotate/germline/svafotate-overlap_0.9-source_CCDG.vcf

DONE

Annotating the following VCF: ../results/2025_11-colo_svafotate/germline/colo829_merge_grch38_cln.vcf

Reading the following data source file: ../data/2025_11-svafotate_bed/SVAFotate_core_SV_popAFs.GRCh38.v4.1.bed.gz

Annotating with the following sources and reciprocal overlap fractions:
ThousG	0.9

Gathering SV coordinates from VCF file: ../results/2025_11-colo_svafotate/germline/colo829_merge_grch38_cln.vcf

Creating pyranges object from VCF data...

Running pyranges.join for:
ThousG

Creating pyranges objects per SVTYPE from VCF data...

Adding annotations to output VCF...

Annoted VCF writen to: ../results/2025_11-colo_svafotate/germline/svafotate-overlap_0.9-source_ThousG.vcf

DONE

Annotating the following VCF: ../results/2025_11-colo_svafotate/germline/colo829_merge_grch38_cln.vcf

Reading the following data source file: ../data/2025_11-svafotate_bed/SVAFotate_core_SV_popAFs.GRCh38.v4.1.bed.gz

Annotating with the following sources and reciprocal overlap fractions:
gnomAD	0.9

Gathering SV coordinates from VCF file: ../results/2025_11-colo_svafotate/germline/colo829_merge_grch38_cln.vcf

Creating pyranges object from VCF data...

Running pyranges.join for:
gnomAD

Creating pyranges objects per SVTYPE from VCF data...

Adding annotations to output VCF...

Annoted VCF writen to: ../results/2025_11-colo_svafotate/germline/svafotate-overlap_0.9-source_gnomAD.vcf

DONE

Annotating the following VCF: ../results/2025_11-colo_svafotate/germline/colo829_merge_grch38_cln.vcf

Reading the following data source file: ../data/2025_11-svafotate_bed/SVAFotate_core_SV_popAFs.GRCh38.v4.1.bed.gz

Annotating with the following sources and reciprocal overlap fractions:
TOPMed	0.7

Gathering SV coordinates from VCF file: ../results/2025_11-colo_svafotate/germline/colo829_merge_grch38_cln.vcf

Creating pyranges object from VCF data...

Running pyranges.join for:
TOPMed

Creating pyranges objects per SVTYPE from VCF data...

Adding annotations to output VCF...

Annoted VCF writen to: ../results/2025_11-colo_svafotate/germline/svafotate-overlap_0.7-source_TOPMed.vcf

DONE

Annotating the following VCF: ../results/2025_11-colo_svafotate/germline/colo829_merge_grch38_cln.vcf

Reading the following data source file: ../data/2025_11-svafotate_bed/SVAFotate_core_SV_popAFs.GRCh38.v4.1.bed.gz

Annotating with the following sources and reciprocal overlap fractions:
CCDG	0.7

Gathering SV coordinates from VCF file: ../results/2025_11-colo_svafotate/germline/colo829_merge_grch38_cln.vcf

Creating pyranges object from VCF data...

Running pyranges.join for:
CCDG

Creating pyranges objects per SVTYPE from VCF data...

Adding annotations to output VCF...

Annoted VCF writen to: ../results/2025_11-colo_svafotate/germline/svafotate-overlap_0.7-source_CCDG.vcf

DONE

Annotating the following VCF: ../results/2025_11-colo_svafotate/germline/colo829_merge_grch38_cln.vcf

Reading the following data source file: ../data/2025_11-svafotate_bed/SVAFotate_core_SV_popAFs.GRCh38.v4.1.bed.gz

Annotating with the following sources and reciprocal overlap fractions:
ThousG	0.7

Gathering SV coordinates from VCF file: ../results/2025_11-colo_svafotate/germline/colo829_merge_grch38_cln.vcf

Creating pyranges object from VCF data...

Running pyranges.join for:
ThousG

Creating pyranges objects per SVTYPE from VCF data...

Adding annotations to output VCF...

Annoted VCF writen to: ../results/2025_11-colo_svafotate/germline/svafotate-overlap_0.7-source_ThousG.vcf

DONE

Annotating the following VCF: ../results/2025_11-colo_svafotate/germline/colo829_merge_grch38_cln.vcf

Reading the following data source file: ../data/2025_11-svafotate_bed/SVAFotate_core_SV_popAFs.GRCh38.v4.1.bed.gz

Annotating with the following sources and reciprocal overlap fractions:
gnomAD	0.7

Gathering SV coordinates from VCF file: ../results/2025_11-colo_svafotate/germline/colo829_merge_grch38_cln.vcf

Creating pyranges object from VCF data...

Running pyranges.join for:
gnomAD

Creating pyranges objects per SVTYPE from VCF data...

Adding annotations to output VCF...

Annoted VCF writen to: ../results/2025_11-colo_svafotate/germline/svafotate-overlap_0.7-source_gnomAD.vcf

DONE
/data/jake/miniconda3/envs/svafotate-env/bin/svafotate annotate -v ../results/2025_11-colo_svafotate/germline/colo829_merge_grch38_cln.vcf -b ../data/2025_11-svafotate_bed/SVAFotate_core_SV_popAFs.GRCh38.v4.1.bed.gz -f 0.8 -s ThousG -O vcf -o ../results/2025_11-colo_svafotate/germline/svafotate-overlap_0.8-source_ThousG.vcf --cpu 1
Extracting Max_AF for overlap 0.8, source ThousG
Running cmd: /data/jake/miniconda3/bin/bcftools query -f '%INFO/Max_AF
' ../results/2025_11-colo_svafotate/germline/svafotate-overlap_0.8-source_ThousG.vcf > ../results/2025_11-colo_svafotate/germline/svafotate-overlap_0.8-source_ThousG_maxaf.txt
SVAFotate completed for overlap 0.8, source ThousG in 180.90 seconds
Running SVAFotate for overlap 0.8, source gnomAD
Running cmd: /data/jake/miniconda3/envs/svafotate-env/bin/svafotate annotate -v ../results/2025_11-colo_svafotate/germline/colo829_merge_grch38_cln.vcf -b ../data/2025_11-svafotate_bed/SVAFotate_core_SV_popAFs.GRCh38.v4.1.bed.gz -f 0.8 -s gnomAD -O vcf -o ../results/2025_11-colo_svafotate/germline/svafotate-overlap_0.8-source_gnomAD.vcf --cpu 1
Extracting Max_AF for overlap 0.8, source gnomAD
Running cmd: /data/jake/miniconda3/bin/bcftools query -f '%INFO/Max_AF
' ../results/2025_11-colo_svafotate/germline/svafotate-overlap_0.8-source_gnomAD.vcf > ../results/2025_11-colo_svafotate/germline/svafotate-overlap_0.8-source_gnomAD_maxaf.txt
SVAFotate completed for overlap 0.8, source gnomAD in 313.07 seconds
Running SVAFotate for overlap 0.9, source TOPMed
Running cmd: /data/jake/miniconda3/envs/svafotate-env/bin/svafotate annotate -v ../results/2025_11-colo_svafotate/germline/colo829_merge_grch38_cln.vcf -b ../data/2025_11-svafotate_bed/SVAFotate_core_SV_popAFs.GRCh38.v4.1.bed.gz -f 0.9 -s TOPMed -O vcf -o ../results/2025_11-colo_svafotate/germline/svafotate-overlap_0.9-source_TOPMed.vcf --cpu 1
Extracting Max_AF for overlap 0.9, source TOPMed
Running cmd: /data/jake/miniconda3/bin/bcftools query -f '%INFO/Max_AF
' ../results/2025_11-colo_svafotate/germline/svafotate-overlap_0.9-source_TOPMed.vcf > ../results/2025_11-colo_svafotate/germline/svafotate-overlap_0.9-source_TOPMed_maxaf.txt
SVAFotate completed for overlap 0.9, source TOPMed in 207.64 seconds
Running SVAFotate for overlap 0.9, source CCDG
Running cmd: /data/jake/miniconda3/envs/svafotate-env/bin/svafotate annotate -v ../results/2025_11-colo_svafotate/germline/colo829_merge_grch38_cln.vcf -b ../data/2025_11-svafotate_bed/SVAFotate_core_SV_popAFs.GRCh38.v4.1.bed.gz -f 0.9 -s CCDG -O vcf -o ../results/2025_11-colo_svafotate/germline/svafotate-overlap_0.9-source_CCDG.vcf --cpu 1
Extracting Max_AF for overlap 0.9, source CCDG
Running cmd: /data/jake/miniconda3/bin/bcftools query -f '%INFO/Max_AF
' ../results/2025_11-colo_svafotate/germline/svafotate-overlap_0.9-source_CCDG.vcf > ../results/2025_11-colo_svafotate/germline/svafotate-overlap_0.9-source_CCDG_maxaf.txt
SVAFotate completed for overlap 0.9, source CCDG in 213.51 seconds
Running SVAFotate for overlap 0.9, source ThousG
Running cmd: /data/jake/miniconda3/envs/svafotate-env/bin/svafotate annotate -v ../results/2025_11-colo_svafotate/germline/colo829_merge_grch38_cln.vcf -b ../data/2025_11-svafotate_bed/SVAFotate_core_SV_popAFs.GRCh38.v4.1.bed.gz -f 0.9 -s ThousG -O vcf -o ../results/2025_11-colo_svafotate/germline/svafotate-overlap_0.9-source_ThousG.vcf --cpu 1
Extracting Max_AF for overlap 0.9, source ThousG
Running cmd: /data/jake/miniconda3/bin/bcftools query -f '%INFO/Max_AF
' ../results/2025_11-colo_svafotate/germline/svafotate-overlap_0.9-source_ThousG.vcf > ../results/2025_11-colo_svafotate/germline/svafotate-overlap_0.9-source_ThousG_maxaf.txt
SVAFotate completed for overlap 0.9, source ThousG in 178.86 seconds
Running SVAFotate for overlap 0.9, source gnomAD
Running cmd: /data/jake/miniconda3/envs/svafotate-env/bin/svafotate annotate -v ../results/2025_11-colo_svafotate/germline/colo829_merge_grch38_cln.vcf -b ../data/2025_11-svafotate_bed/SVAFotate_core_SV_popAFs.GRCh38.v4.1.bed.gz -f 0.9 -s gnomAD -O vcf -o ../results/2025_11-colo_svafotate/germline/svafotate-overlap_0.9-source_gnomAD.vcf --cpu 1
Extracting Max_AF for overlap 0.9, source gnomAD
Running cmd: /data/jake/miniconda3/bin/bcftools query -f '%INFO/Max_AF
' ../results/2025_11-colo_svafotate/germline/svafotate-overlap_0.9-source_gnomAD.vcf > ../results/2025_11-colo_svafotate/germline/svafotate-overlap_0.9-source_gnomAD_maxaf.txt
SVAFotate completed for overlap 0.9, source gnomAD in 311.12 seconds
Running SVAFotate for overlap 0.7, source TOPMed
Running cmd: /data/jake/miniconda3/envs/svafotate-env/bin/svafotate annotate -v ../results/2025_11-colo_svafotate/germline/colo829_merge_grch38_cln.vcf -b ../data/2025_11-svafotate_bed/SVAFotate_core_SV_popAFs.GRCh38.v4.1.bed.gz -f 0.7 -s TOPMed -O vcf -o ../results/2025_11-colo_svafotate/germline/svafotate-overlap_0.7-source_TOPMed.vcf --cpu 1
Extracting Max_AF for overlap 0.7, source TOPMed
Running cmd: /data/jake/miniconda3/bin/bcftools query -f '%INFO/Max_AF
' ../results/2025_11-colo_svafotate/germline/svafotate-overlap_0.7-source_TOPMed.vcf > ../results/2025_11-colo_svafotate/germline/svafotate-overlap_0.7-source_TOPMed_maxaf.txt
SVAFotate completed for overlap 0.7, source TOPMed in 213.32 seconds
Running SVAFotate for overlap 0.7, source CCDG
Running cmd: /data/jake/miniconda3/envs/svafotate-env/bin/svafotate annotate -v ../results/2025_11-colo_svafotate/germline/colo829_merge_grch38_cln.vcf -b ../data/2025_11-svafotate_bed/SVAFotate_core_SV_popAFs.GRCh38.v4.1.bed.gz -f 0.7 -s CCDG -O vcf -o ../results/2025_11-colo_svafotate/germline/svafotate-overlap_0.7-source_CCDG.vcf --cpu 1
Extracting Max_AF for overlap 0.7, source CCDG
Running cmd: /data/jake/miniconda3/bin/bcftools query -f '%INFO/Max_AF
' ../results/2025_11-colo_svafotate/germline/svafotate-overlap_0.7-source_CCDG.vcf > ../results/2025_11-colo_svafotate/germline/svafotate-overlap_0.7-source_CCDG_maxaf.txt
SVAFotate completed for overlap 0.7, source CCDG in 209.10 seconds
Running SVAFotate for overlap 0.7, source ThousG
Running cmd: /data/jake/miniconda3/envs/svafotate-env/bin/svafotate annotate -v ../results/2025_11-colo_svafotate/germline/colo829_merge_grch38_cln.vcf -b ../data/2025_11-svafotate_bed/SVAFotate_core_SV_popAFs.GRCh38.v4.1.bed.gz -f 0.7 -s ThousG -O vcf -o ../results/2025_11-colo_svafotate/germline/svafotate-overlap_0.7-source_ThousG.vcf --cpu 1
Extracting Max_AF for overlap 0.7, source ThousG
Running cmd: /data/jake/miniconda3/bin/bcftools query -f '%INFO/Max_AF
' ../results/2025_11-colo_svafotate/germline/svafotate-overlap_0.7-source_ThousG.vcf > ../results/2025_11-colo_svafotate/germline/svafotate-overlap_0.7-source_ThousG_maxaf.txt
SVAFotate completed for overlap 0.7, source ThousG in 177.81 seconds
Running SVAFotate for overlap 0.7, source gnomAD
Running cmd: /data/jake/miniconda3/envs/svafotate-env/bin/svafotate annotate -v ../results/2025_11-colo_svafotate/germline/colo829_merge_grch38_cln.vcf -b ../data/2025_11-svafotate_bed/SVAFotate_core_SV_popAFs.GRCh38.v4.1.bed.gz -f 0.7 -s gnomAD -O vcf -o ../results/2025_11-colo_svafotate/germline/svafotate-overlap_0.7-source_gnomAD.vcf --cpu 1
Extracting Max_AF for overlap 0.7, source gnomAD
Running cmd: /data/jake/miniconda3/bin/bcftools query -f '%INFO/Max_AF
' ../results/2025_11-colo_svafotate/germline/svafotate-overlap_0.7-source_gnomAD.vcf > ../results/2025_11-colo_svafotate/germline/svafotate-overlap_0.7-source_gnomAD_maxaf.txt
SVAFotate completed for overlap 0.7, source gnomAD in 308.93 seconds
All SVAFotate experiments completed.
Total time elapsed: 4549.85 seconds
