Input file: ../results/2025_12-colo-filtered/colo829_somatic_grch38_nogt00.vcf
Output file: /data/jake/stix-lr/results/2026_01-colo-svafotate-filt-rerun/somatic/colo829_somatic_grch38_nogt00_cln.vcf
Filtering BNDs
[W::bcf_hdr_check_sanity] END should be declared as Type=Integer
[W::vcf_parse_info] INFO 'AF' is not defined in the header, assuming Type=String
Setting END type and AF header line
Done. Output written to /data/jake/stix-lr/results/2026_01-colo-svafotate-filt-rerun/somatic/colo829_somatic_grch38_nogt00_cln.vcf

Annotating the following VCF: /data/jake/stix-lr/results/2026_01-colo-svafotate-filt-rerun/somatic/colo829_somatic_grch38_nogt00_cln.vcf

Reading the following data source file: ../data/2025_11-svafotate_bed/SVAFotate_core_SV_popAFs.GRCh38.v4.1.bed.gz

Annotating with the following sources and reciprocal overlap fractions:
ThousG	0.5
gnomAD	0.5
TOPMed	0.5
CCDG	0.5

Gathering SV coordinates from VCF file: /data/jake/stix-lr/results/2026_01-colo-svafotate-filt-rerun/somatic/colo829_somatic_grch38_nogt00_cln.vcf

Creating pyranges object from VCF data...

Running pyranges.join for:
ThousG

Running pyranges.join for:
gnomAD

Running pyranges.join for:
TOPMed

Running pyranges.join for:
CCDG

Creating pyranges objects per SVTYPE from VCF data...

Adding annotations to output VCF...

Annoted VCF writen to: /data/jake/stix-lr/results/2026_01-colo-svafotate-filt-rerun/somatic/svafotate-overlap_0.5-source_all.vcf

DONE

Annotating the following VCF: /data/jake/stix-lr/results/2026_01-colo-svafotate-filt-rerun/somatic/colo829_somatic_grch38_nogt00_cln.vcf

Reading the following data source file: ../data/2025_11-svafotate_bed/SVAFotate_core_SV_popAFs.GRCh38.v4.1.bed.gz

Annotating with the following sources and reciprocal overlap fractions:
TOPMed	0.6
CCDG	0.6
gnomAD	0.6
ThousG	0.6

Gathering SV coordinates from VCF file: /data/jake/stix-lr/results/2026_01-colo-svafotate-filt-rerun/somatic/colo829_somatic_grch38_nogt00_cln.vcf

Creating pyranges object from VCF data...

Running pyranges.join for:
TOPMed

Running pyranges.join for:
CCDG

Running pyranges.join for:
gnomAD

Running pyranges.join for:
ThousG

Creating pyranges objects per SVTYPE from VCF data...

Adding annotations to output VCF...

Annoted VCF writen to: /data/jake/stix-lr/results/2026_01-colo-svafotate-filt-rerun/somatic/svafotate-overlap_0.6-source_all.vcf

DONE

Annotating the following VCF: /data/jake/stix-lr/results/2026_01-colo-svafotate-filt-rerun/somatic/colo829_somatic_grch38_nogt00_cln.vcf

Reading the following data source file: ../data/2025_11-svafotate_bed/SVAFotate_core_SV_popAFs.GRCh38.v4.1.bed.gz

Annotating with the following sources and reciprocal overlap fractions:
gnomAD	0.8
TOPMed	0.8
ThousG	0.8
CCDG	0.8

Gathering SV coordinates from VCF file: /data/jake/stix-lr/results/2026_01-colo-svafotate-filt-rerun/somatic/colo829_somatic_grch38_nogt00_cln.vcf

Creating pyranges object from VCF data...

Running pyranges.join for:
gnomAD

Running pyranges.join for:
TOPMed

Running pyranges.join for:
ThousG

Running pyranges.join for:
CCDG

Creating pyranges objects per SVTYPE from VCF data...

Adding annotations to output VCF...

Annoted VCF writen to: /data/jake/stix-lr/results/2026_01-colo-svafotate-filt-rerun/somatic/svafotate-overlap_0.8-source_all.vcf

DONE

Annotating the following VCF: /data/jake/stix-lr/results/2026_01-colo-svafotate-filt-rerun/somatic/colo829_somatic_grch38_nogt00_cln.vcf

Reading the following data source file: ../data/2025_11-svafotate_bed/SVAFotate_core_SV_popAFs.GRCh38.v4.1.bed.gz

Annotating with the following sources and reciprocal overlap fractions:
ThousG	0.7
gnomAD	0.7
CCDG	0.7
TOPMed	0.7

Gathering SV coordinates from VCF file: /data/jake/stix-lr/results/2026_01-colo-svafotate-filt-rerun/somatic/colo829_somatic_grch38_nogt00_cln.vcf

Creating pyranges object from VCF data...

Running pyranges.join for:
ThousG

Running pyranges.join for:
gnomAD

Running pyranges.join for:
CCDG

Running pyranges.join for:
TOPMed

Creating pyranges objects per SVTYPE from VCF data...

Adding annotations to output VCF...

Annoted VCF writen to: /data/jake/stix-lr/results/2026_01-colo-svafotate-filt-rerun/somatic/svafotate-overlap_0.7-source_all.vcf

DONE

Annotating the following VCF: /data/jake/stix-lr/results/2026_01-colo-svafotate-filt-rerun/somatic/colo829_somatic_grch38_nogt00_cln.vcf

Reading the following data source file: ../data/2025_11-svafotate_bed/SVAFotate_core_SV_popAFs.GRCh38.v4.1.bed.gz

Annotating with the following sources and reciprocal overlap fractions:
gnomAD	0.9
CCDG	0.9
ThousG	0.9
TOPMed	0.9

Gathering SV coordinates from VCF file: /data/jake/stix-lr/results/2026_01-colo-svafotate-filt-rerun/somatic/colo829_somatic_grch38_nogt00_cln.vcf

Creating pyranges object from VCF data...

Running pyranges.join for:
gnomAD

Running pyranges.join for:
CCDG

Running pyranges.join for:
ThousG

Running pyranges.join for:
TOPMed

Creating pyranges objects per SVTYPE from VCF data...

Adding annotations to output VCF...

Annoted VCF writen to: /data/jake/stix-lr/results/2026_01-colo-svafotate-filt-rerun/somatic/svafotate-overlap_0.9-source_all.vcf

DONE
Running cmd: /data/jake/stix-lr/src/setup_colo_vcf.sh -i ../results/2025_12-colo-filtered/colo829_somatic_grch38_nogt00.vcf -o /data/jake/stix-lr/results/2026_01-colo-svafotate-filt-rerun/somatic/colo829_somatic_grch38_nogt00_cln.vcf --sedfile /data/jake/stix-lr/src/setup_vcf.sed
Starting SVAFotate experiments...
Running SVAFotate for overlap 0.5, source all
Running cmd: /data/jake/miniconda3/envs/svafotate-env/bin/svafotate annotate -v /data/jake/stix-lr/results/2026_01-colo-svafotate-filt-rerun/somatic/colo829_somatic_grch38_nogt00_cln.vcf -b ../data/2025_11-svafotate_bed/SVAFotate_core_SV_popAFs.GRCh38.v4.1.bed.gz -f 0.5 -O vcf -o /data/jake/stix-lr/results/2026_01-colo-svafotate-filt-rerun/somatic/svafotate-overlap_0.5-source_all.vcf --cpu 1
# wrote time to /data/jake/stix-lr/results/2026_01-colo-svafotate-filt-rerun/svafotate_somatic.time
Extracting Max_AF for overlap 0.5, source all
Running cmd: /data/jake/miniconda3/bin/bcftools query -f '%INFO/Max_AF
' /data/jake/stix-lr/results/2026_01-colo-svafotate-filt-rerun/somatic/svafotate-overlap_0.5-source_all.vcf > /data/jake/stix-lr/results/2026_01-colo-svafotate-filt-rerun/somatic/svafotate-overlap_0.5-source_all_maxaf.txt
SVAFotate completed for overlap 0.5, source all in 179.75 seconds
Running SVAFotate for overlap 0.6, source all
Running cmd: /data/jake/miniconda3/envs/svafotate-env/bin/svafotate annotate -v /data/jake/stix-lr/results/2026_01-colo-svafotate-filt-rerun/somatic/colo829_somatic_grch38_nogt00_cln.vcf -b ../data/2025_11-svafotate_bed/SVAFotate_core_SV_popAFs.GRCh38.v4.1.bed.gz -f 0.6 -O vcf -o /data/jake/stix-lr/results/2026_01-colo-svafotate-filt-rerun/somatic/svafotate-overlap_0.6-source_all.vcf --cpu 1
# wrote time to /data/jake/stix-lr/results/2026_01-colo-svafotate-filt-rerun/svafotate_somatic.time
Extracting Max_AF for overlap 0.6, source all
Running cmd: /data/jake/miniconda3/bin/bcftools query -f '%INFO/Max_AF
' /data/jake/stix-lr/results/2026_01-colo-svafotate-filt-rerun/somatic/svafotate-overlap_0.6-source_all.vcf > /data/jake/stix-lr/results/2026_01-colo-svafotate-filt-rerun/somatic/svafotate-overlap_0.6-source_all_maxaf.txt
SVAFotate completed for overlap 0.6, source all in 181.34 seconds
Running SVAFotate for overlap 0.8, source all
Running cmd: /data/jake/miniconda3/envs/svafotate-env/bin/svafotate annotate -v /data/jake/stix-lr/results/2026_01-colo-svafotate-filt-rerun/somatic/colo829_somatic_grch38_nogt00_cln.vcf -b ../data/2025_11-svafotate_bed/SVAFotate_core_SV_popAFs.GRCh38.v4.1.bed.gz -f 0.8 -O vcf -o /data/jake/stix-lr/results/2026_01-colo-svafotate-filt-rerun/somatic/svafotate-overlap_0.8-source_all.vcf --cpu 1
# wrote time to /data/jake/stix-lr/results/2026_01-colo-svafotate-filt-rerun/svafotate_somatic.time
Extracting Max_AF for overlap 0.8, source all
Running cmd: /data/jake/miniconda3/bin/bcftools query -f '%INFO/Max_AF
' /data/jake/stix-lr/results/2026_01-colo-svafotate-filt-rerun/somatic/svafotate-overlap_0.8-source_all.vcf > /data/jake/stix-lr/results/2026_01-colo-svafotate-filt-rerun/somatic/svafotate-overlap_0.8-source_all_maxaf.txt
SVAFotate completed for overlap 0.8, source all in 179.30 seconds
Running SVAFotate for overlap 0.7, source all
Running cmd: /data/jake/miniconda3/envs/svafotate-env/bin/svafotate annotate -v /data/jake/stix-lr/results/2026_01-colo-svafotate-filt-rerun/somatic/colo829_somatic_grch38_nogt00_cln.vcf -b ../data/2025_11-svafotate_bed/SVAFotate_core_SV_popAFs.GRCh38.v4.1.bed.gz -f 0.7 -O vcf -o /data/jake/stix-lr/results/2026_01-colo-svafotate-filt-rerun/somatic/svafotate-overlap_0.7-source_all.vcf --cpu 1
# wrote time to /data/jake/stix-lr/results/2026_01-colo-svafotate-filt-rerun/svafotate_somatic.time
Extracting Max_AF for overlap 0.7, source all
Running cmd: /data/jake/miniconda3/bin/bcftools query -f '%INFO/Max_AF
' /data/jake/stix-lr/results/2026_01-colo-svafotate-filt-rerun/somatic/svafotate-overlap_0.7-source_all.vcf > /data/jake/stix-lr/results/2026_01-colo-svafotate-filt-rerun/somatic/svafotate-overlap_0.7-source_all_maxaf.txt
SVAFotate completed for overlap 0.7, source all in 179.29 seconds
Running SVAFotate for overlap 0.9, source all
Running cmd: /data/jake/miniconda3/envs/svafotate-env/bin/svafotate annotate -v /data/jake/stix-lr/results/2026_01-colo-svafotate-filt-rerun/somatic/colo829_somatic_grch38_nogt00_cln.vcf -b ../data/2025_11-svafotate_bed/SVAFotate_core_SV_popAFs.GRCh38.v4.1.bed.gz -f 0.9 -O vcf -o /data/jake/stix-lr/results/2026_01-colo-svafotate-filt-rerun/somatic/svafotate-overlap_0.9-source_all.vcf --cpu 1
# wrote time to /data/jake/stix-lr/results/2026_01-colo-svafotate-filt-rerun/svafotate_somatic.time
Extracting Max_AF for overlap 0.9, source all
Running cmd: /data/jake/miniconda3/bin/bcftools query -f '%INFO/Max_AF
' /data/jake/stix-lr/results/2026_01-colo-svafotate-filt-rerun/somatic/svafotate-overlap_0.9-source_all.vcf > /data/jake/stix-lr/results/2026_01-colo-svafotate-filt-rerun/somatic/svafotate-overlap_0.9-source_all_maxaf.txt
SVAFotate completed for overlap 0.9, source all in 181.23 seconds
All SVAFotate experiments completed.
Total time elapsed: 900.96 seconds
